tests/data/16bus/d_16barras_Med.pwf
TITU
Sistema-Teste de 16 Barras - Caso Base - Carga Media
DOPC IMPR
(Op) E (Op) E (Op) E (Op) E (Op) E (Op) E (Op) E (Op) E (Op) E (Op) E
QLIM L CREM L CTAP L STEP L NEWT L MOCT L MOCG L MOCF L RCVG L RMON L
99999
DBAR
(Num)OETGb(   nome   )Gl( V)( A)( Pg)( Qg)( Qn)( Qm)(Bc  )( Pl)( Ql)( Sh)Are(Vf)
   1   1 AGERADOR-1    A10201.99 300.-62.8-180. 180.                       11020
   2     DBARRA-2      C1030-.47                                           11044
   3     DBARRA-3      C1023-4.5                            41.  26. -90.  11042
   4     EBARRA-4      B1026-6.3                            90.  60.       21031
   5     EBARRA-5      B1027-5.1                            26.  17.       21036
   6     EBARRA-6      B1020-2.4                            14.  10.       21034
   7     EBARRA-7      B1025-5.1                            14.  12.       21036
   8     EBARRA-8      B1030-6.8                            33.  21.       21030
   9   1 AC.SINCRONO   A1010-6.8   0.-13.5 -50.  70.                       21010
  10     DBARRA-10     C1008-8.2                            35.  25.       11033
  11     DBARRA-11     C1019-8.1                            34.  23. -30.  11041
  12     DBARRA-12     C1026-7.1                            86.  47.       11042
  13     DBARRA-13     C1023-7.5                            51.  29. -30.  11040
  14     FBARRA-14     A1020-6.6                            48.  33.       11020
  15     DBARRA-15     C1020-5.2                                           11020
  16   2 AGERADOR-2    A1010  0.175.8-37.7-180. 180.                       21020
99999
DLIN
(De )d O d(Pa )NcEP ( R% )( X% )(Mvar)(Tap)(Tmn)(Tmx)(Phs)(Bc  )(Cn)(Ce)Ns(Cq)
   1          2 1            1.5         1.                      520 572
   2          3 1      .45  4.96  84.8                           300 330
   2          3 2      .45  4.96  84.8                           300 330
   3         12 1      .24  2.64 45.05                           300 330
   3         14 1           8.33      .9763   .9  1.1        -14 165 18121
   3         15 1      .79  8.38 30.63                           200 220
   3         15 2      .79  8.38 30.63                           200 220
   4          5 1      .69  7.37 26.95                           200 220
   4          5 2      .69  7.37 26.95                           200 220
   4         15 1           6.67       1.03   .9  1.1        -15 300 33021
   5          6 1       .5  5.36  19.6                           200 220
   6          7 1       .6  6.37 23.28                           200 220
   6         16 1            2.5         1.                      450 495
   7          8 1      .47  5.03 18.38                           200 220
   8          9 1           12.5         1.                      100 110
  10          8 1            10.       .951   .9  1.1         -8 260 28621
  10         11 1      .34  3.72  63.6                           300 330
  11         12 1      .39  4.34  74.2                           300 330
  12         13 1      .22  2.48  42.4                           300 330
  12         13 2      .22  2.48  42.4                           300 330
99999
DGLT
(G (Vmn) (Vmx) (Vmne (Vmxe
 A   .95  1.05
 C   .95  1.08
 B   .95  1.07
99999
DARE
(Ar    (Xchg)     (      Identificacao da area       ) (Xmin) (Xmax)
  1        0.     ****** AREA 1 *******
  2        0.     ****** AREA 2 *******
99999
DGBT
(G ( kV)
 A  13.8
 D  345.
 E  230.
 F  138.
99999
DGGB
(G Co Es
 A  0  1
 D  0  1
 E  0  1
 F  0  1
99999
FIM
